#!/sbin/sh

#################
# 初始化
#################

umask 022

# echo before loading util_functions
ui_print() { echo "$1"; }

require_new_magisk() {
  ui_print "*******************************"
  ui_print " 请安装 Magisk v19.0+! "
  ui_print "*******************************"
  exit 1
}

#########################
# 加载util_functions.sh
#########################

OUTFD=$2
ZIPFILE=$3

mount /data 2>/dev/null

[ -f /data/adb/magisk/util_functions.sh ] || require_new_magisk
. /data/adb/magisk/util_functions.sh
[ $MAGISK_VER_CODE -lt 19000 ] && require_new_magisk

if [ $MAGISK_VER_CODE -ge 20400 ]; then
  # 新的Magisk在util_functions.sh中有完整的安装逻辑
  install_module
  exit 0
fi

#################
# 遗留支持
#################

TMPDIR=/dev/tmp
PERSISTDIR=/sbin/.magisk/mirror/persist

is_legacy_script() {
  unzip -l "$ZIPFILE" install.sh | grep -q install.sh
  return $?
}

print_modname() {
  local len
  len=`echo -n $MODNAME | wc -c`
  len=$((len + 2))
  local pounds=`printf "%${len}s" | tr ' ' '*'`
  ui_print "$pounds"
  ui_print " $MODNAME "
  ui_print "$pounds"
  ui_print "*******************"
  ui_print " Powered by Magisk "
  ui_print "*******************"
}

# 旧脚本有一些问题，覆盖中止
abort() {
  ui_print "$1"
  $BOOTMODE || recovery_cleanup
  [ -n $MODPATH ] && rm -rf $MODPATH
  rm -rf $TMPDIR
  exit 1
}

rm -rf $TMPDIR 2>/dev/null
mkdir -p $TMPDIR

# 准备刷入压缩包
setup_flashable

# 安装分区
mount_partitions

# 检测版本和架构
api_level_arch_detect

# 设置BusyBox和二进制文件
$BOOTMODE && boot_actions || recovery_actions

##############
# 准备
##############

# 提取prop文件
unzip -o "$ZIPFILE" module.prop -d $TMPDIR >&2
[ ! -f $TMPDIR/module.prop ] && abort "! 无法提取zip文件!"

$BOOTMODE && MODDIRNAME=modules_update || MODDIRNAME=modules
MODULEROOT=$NVBASE/$MODDIRNAME
MODID=`grep_prop id $TMPDIR/module.prop`
MODPATH=$MODULEROOT/$MODID
MODNAME=`grep_prop name $TMPDIR/module.prop`

# 创建模块路径
rm -rf $MODPATH 2>/dev/null
mkdir -p $MODPATH

##########
# 安装
##########

if is_legacy_script; then
  unzip -oj "$ZIPFILE" module.prop install.sh uninstall.sh 'common/*' -d $TMPDIR >&2

  # 加载安装脚本
  . $TMPDIR/install.sh

  # 函数
  print_modname
  on_install

  # 自定义卸载脚本
  [ -f $TMPDIR/uninstall.sh ] && cp -af $TMPDIR/uninstall.sh $MODPATH/uninstall.sh

  # 跳过安装
  $SKIPMOUNT && touch $MODPATH/skip_mount

  # prop文件
  $PROPFILE && cp -af $TMPDIR/system.prop $MODPATH/system.prop

  # 模块信息
  cp -af $TMPDIR/module.prop $MODPATH/module.prop

  # post-fs-data脚本
  $POSTFSDATA && cp -af $TMPDIR/post-fs-data.sh $MODPATH/post-fs-data.sh

  # service脚本
  $LATESTARTSERVICE && cp -af $TMPDIR/service.sh $MODPATH/service.sh

  ui_print "- 设置权限"
  set_permissions
else
  print_modname

  unzip -o "$ZIPFILE" customize.sh -d $MODPATH >&2

  if ! grep -q '^SKIPUNZIP=1$' $MODPATH/customize.sh 2>/dev/null; then
    ui_print "- 提取模块文件"
    unzip -o "$ZIPFILE" -x 'META-INF/*' -d $MODPATH >&2

    # 默认权限
    set_perm_recursive $MODPATH 0 0 0755 0644
  fi

  # 加载自定义脚本
  [ -f $MODPATH/customize.sh ] && . $MODPATH/customize.sh
fi

# 处理替换文件夹
for TARGET in $REPLACE; do
  ui_print "- 替换目标: $TARGET"
  mktouch $MODPATH$TARGET/.replace
done

if $BOOTMODE; then
  # 更新Magisk Manager的信息
  mktouch $NVBASE/modules/$MODID/update
  cp -af $MODPATH/module.prop $NVBASE/modules/$MODID/module.prop
fi

# 复制自定义sepolicy规则
if [ -f $MODPATH/sepolicy.rule -a -e $PERSISTDIR ]; then
  ui_print "- 安装自定义Sepolicy补丁"
  PERSISTMOD=$PERSISTDIR/magisk/$MODID
  mkdir -p $PERSISTMOD
  cp -af $MODPATH/sepolicy.rule $PERSISTMOD/sepolicy.rule
fi

# 删除不属于模块的东西
rm -rf \
$MODPATH/system/placeholder $MODPATH/customize.sh \
$MODPATH/README.md $MODPATH/.git* 2>/dev/null

#############
# 完成
#############

cd /
$BOOTMODE || recovery_cleanup
rm -rf $TMPDIR

ui_print "- 完成"
exit 0
